#============================================== 
#|        List of runtime packages            | 
#============================================== 
 &PACKAGES
  useMNC=.TRUE.,
  usediagnostics=.TRUE.,
  useRBCS=.TRUE.,
  useLayers=.TRUE.,
 &
